/*--------------------------------*- C++ -*----------------------------------*\
| =========                 |                                                 |
| \\      /  F ield         | OpenFOAM: The Open Source CFD Toolbox           |
|  \\    /   O peration     | Version:  v2112                                 |
|   \\  /    A nd           | Website:  www.openfoam.com                      |
|    \\/     M anipulation  |                                                 |
\*---------------------------------------------------------------------------*/
FoamFile
{
    version     2.0;
    format      ascii;
    class       dictionary;
    object      changeDictionaryDict;
}
// * * * * * * * * * * * * * * * * * * * * * * * * * * * * * * * * * * * * * //
U
{
    boundaryField
    {
        jet
        {
            type            agentJet;
            deterministic   false;
            controlPeriod   0.25;
            rampUpPeriod    0.1;
            policyDir       "model";
            stateField      p;
            stateProbesNo   315;
            interpolationScheme cellPoint;
            stateProbeLocations nonuniform List<vector>
            315
            (
                ( 0.55000000 -1.25000000 -4.00000000 )
                ( 0.55000000 -1.25000000 -2.66666667 )
                ( 0.55000000 -1.25000000 -1.33333333 )
                ( 0.55000000 -1.25000000 0.00000000 )
                ( 0.55000000 -1.25000000 1.33333333 )
                ( 0.55000000 -1.25000000 2.66666667 )
                ( 0.55000000 -1.25000000 4.00000000 )
                ( 0.55000000 -0.62500000 -4.00000000 )
                ( 0.55000000 -0.62500000 -2.66666667 )
                ( 0.55000000 -0.62500000 -1.33333333 )
                ( 0.55000000 -0.62500000 0.00000000 )
                ( 0.55000000 -0.62500000 1.33333333 )
                ( 0.55000000 -0.62500000 2.66666667 )
                ( 0.55000000 -0.62500000 4.00000000 )
                ( 0.55000000 0.00000000 -4.00000000 )
                ( 0.55000000 0.00000000 -2.66666667 )
                ( 0.55000000 0.00000000 -1.33333333 )
                ( 0.55000000 0.00000000 0.00000000 )
                ( 0.55000000 0.00000000 1.33333333 )
                ( 0.55000000 0.00000000 2.66666667 )
                ( 0.55000000 0.00000000 4.00000000 )
                ( 0.55000000 0.62500000 -4.00000000 )
                ( 0.55000000 0.62500000 -2.66666667 )
                ( 0.55000000 0.62500000 -1.33333333 )
                ( 0.55000000 0.62500000 0.00000000 )
                ( 0.55000000 0.62500000 1.33333333 )
                ( 0.55000000 0.62500000 2.66666667 )
                ( 0.55000000 0.62500000 4.00000000 )
                ( 0.55000000 1.25000000 -4.00000000 )
                ( 0.55000000 1.25000000 -2.66666667 )
                ( 0.55000000 1.25000000 -1.33333333 )
                ( 0.55000000 1.25000000 0.00000000 )
                ( 0.55000000 1.25000000 1.33333333 )
                ( 0.55000000 1.25000000 2.66666667 )
                ( 0.55000000 1.25000000 4.00000000 )
                ( 1.48125000 -1.25000000 -4.00000000 )
                ( 1.48125000 -1.25000000 -2.66666667 )
                ( 1.48125000 -1.25000000 -1.33333333 )
                ( 1.48125000 -1.25000000 0.00000000 )
                ( 1.48125000 -1.25000000 1.33333333 )
                ( 1.48125000 -1.25000000 2.66666667 )
                ( 1.48125000 -1.25000000 4.00000000 )
                ( 1.48125000 -0.62500000 -4.00000000 )
                ( 1.48125000 -0.62500000 -2.66666667 )
                ( 1.48125000 -0.62500000 -1.33333333 )
                ( 1.48125000 -0.62500000 0.00000000 )
                ( 1.48125000 -0.62500000 1.33333333 )
                ( 1.48125000 -0.62500000 2.66666667 )
                ( 1.48125000 -0.62500000 4.00000000 )
                ( 1.48125000 0.00000000 -4.00000000 )
                ( 1.48125000 0.00000000 -2.66666667 )
                ( 1.48125000 0.00000000 -1.33333333 )
                ( 1.48125000 0.00000000 0.00000000 )
                ( 1.48125000 0.00000000 1.33333333 )
                ( 1.48125000 0.00000000 2.66666667 )
                ( 1.48125000 0.00000000 4.00000000 )
                ( 1.48125000 0.62500000 -4.00000000 )
                ( 1.48125000 0.62500000 -2.66666667 )
                ( 1.48125000 0.62500000 -1.33333333 )
                ( 1.48125000 0.62500000 0.00000000 )
                ( 1.48125000 0.62500000 1.33333333 )
                ( 1.48125000 0.62500000 2.66666667 )
                ( 1.48125000 0.62500000 4.00000000 )
                ( 1.48125000 1.25000000 -4.00000000 )
                ( 1.48125000 1.25000000 -2.66666667 )
                ( 1.48125000 1.25000000 -1.33333333 )
                ( 1.48125000 1.25000000 0.00000000 )
                ( 1.48125000 1.25000000 1.33333333 )
                ( 1.48125000 1.25000000 2.66666667 )
                ( 1.48125000 1.25000000 4.00000000 )
                ( 2.41250000 -1.25000000 -4.00000000 )
                ( 2.41250000 -1.25000000 -2.66666667 )
                ( 2.41250000 -1.25000000 -1.33333333 )
                ( 2.41250000 -1.25000000 0.00000000 )
                ( 2.41250000 -1.25000000 1.33333333 )
                ( 2.41250000 -1.25000000 2.66666667 )
                ( 2.41250000 -1.25000000 4.00000000 )
                ( 2.41250000 -0.62500000 -4.00000000 )
                ( 2.41250000 -0.62500000 -2.66666667 )
                ( 2.41250000 -0.62500000 -1.33333333 )
                ( 2.41250000 -0.62500000 0.00000000 )
                ( 2.41250000 -0.62500000 1.33333333 )
                ( 2.41250000 -0.62500000 2.66666667 )
                ( 2.41250000 -0.62500000 4.00000000 )
                ( 2.41250000 0.00000000 -4.00000000 )
                ( 2.41250000 0.00000000 -2.66666667 )
                ( 2.41250000 0.00000000 -1.33333333 )
                ( 2.41250000 0.00000000 0.00000000 )
                ( 2.41250000 0.00000000 1.33333333 )
                ( 2.41250000 0.00000000 2.66666667 )
                ( 2.41250000 0.00000000 4.00000000 )
                ( 2.41250000 0.62500000 -4.00000000 )
                ( 2.41250000 0.62500000 -2.66666667 )
                ( 2.41250000 0.62500000 -1.33333333 )
                ( 2.41250000 0.62500000 0.00000000 )
                ( 2.41250000 0.62500000 1.33333333 )
                ( 2.41250000 0.62500000 2.66666667 )
                ( 2.41250000 0.62500000 4.00000000 )
                ( 2.41250000 1.25000000 -4.00000000 )
                ( 2.41250000 1.25000000 -2.66666667 )
                ( 2.41250000 1.25000000 -1.33333333 )
                ( 2.41250000 1.25000000 0.00000000 )
                ( 2.41250000 1.25000000 1.33333333 )
                ( 2.41250000 1.25000000 2.66666667 )
                ( 2.41250000 1.25000000 4.00000000 )
                ( 3.34375000 -1.25000000 -4.00000000 )
                ( 3.34375000 -1.25000000 -2.66666667 )
                ( 3.34375000 -1.25000000 -1.33333333 )
                ( 3.34375000 -1.25000000 0.00000000 )
                ( 3.34375000 -1.25000000 1.33333333 )
                ( 3.34375000 -1.25000000 2.66666667 )
                ( 3.34375000 -1.25000000 4.00000000 )
                ( 3.34375000 -0.62500000 -4.00000000 )
                ( 3.34375000 -0.62500000 -2.66666667 )
                ( 3.34375000 -0.62500000 -1.33333333 )
                ( 3.34375000 -0.62500000 0.00000000 )
                ( 3.34375000 -0.62500000 1.33333333 )
                ( 3.34375000 -0.62500000 2.66666667 )
                ( 3.34375000 -0.62500000 4.00000000 )
                ( 3.34375000 0.00000000 -4.00000000 )
                ( 3.34375000 0.00000000 -2.66666667 )
                ( 3.34375000 0.00000000 -1.33333333 )
                ( 3.34375000 0.00000000 0.00000000 )
                ( 3.34375000 0.00000000 1.33333333 )
                ( 3.34375000 0.00000000 2.66666667 )
                ( 3.34375000 0.00000000 4.00000000 )
                ( 3.34375000 0.62500000 -4.00000000 )
                ( 3.34375000 0.62500000 -2.66666667 )
                ( 3.34375000 0.62500000 -1.33333333 )
                ( 3.34375000 0.62500000 0.00000000 )
                ( 3.34375000 0.62500000 1.33333333 )
                ( 3.34375000 0.62500000 2.66666667 )
                ( 3.34375000 0.62500000 4.00000000 )
                ( 3.34375000 1.25000000 -4.00000000 )
                ( 3.34375000 1.25000000 -2.66666667 )
                ( 3.34375000 1.25000000 -1.33333333 )
                ( 3.34375000 1.25000000 0.00000000 )
                ( 3.34375000 1.25000000 1.33333333 )
                ( 3.34375000 1.25000000 2.66666667 )
                ( 3.34375000 1.25000000 4.00000000 )
                ( 4.27500000 -1.25000000 -4.00000000 )
                ( 4.27500000 -1.25000000 -2.66666667 )
                ( 4.27500000 -1.25000000 -1.33333333 )
                ( 4.27500000 -1.25000000 0.00000000 )
                ( 4.27500000 -1.25000000 1.33333333 )
                ( 4.27500000 -1.25000000 2.66666667 )
                ( 4.27500000 -1.25000000 4.00000000 )
                ( 4.27500000 -0.62500000 -4.00000000 )
                ( 4.27500000 -0.62500000 -2.66666667 )
                ( 4.27500000 -0.62500000 -1.33333333 )
                ( 4.27500000 -0.62500000 0.00000000 )
                ( 4.27500000 -0.62500000 1.33333333 )
                ( 4.27500000 -0.62500000 2.66666667 )
                ( 4.27500000 -0.62500000 4.00000000 )
                ( 4.27500000 0.00000000 -4.00000000 )
                ( 4.27500000 0.00000000 -2.66666667 )
                ( 4.27500000 0.00000000 -1.33333333 )
                ( 4.27500000 0.00000000 0.00000000 )
                ( 4.27500000 0.00000000 1.33333333 )
                ( 4.27500000 0.00000000 2.66666667 )
                ( 4.27500000 0.00000000 4.00000000 )
                ( 4.27500000 0.62500000 -4.00000000 )
                ( 4.27500000 0.62500000 -2.66666667 )
                ( 4.27500000 0.62500000 -1.33333333 )
                ( 4.27500000 0.62500000 0.00000000 )
                ( 4.27500000 0.62500000 1.33333333 )
                ( 4.27500000 0.62500000 2.66666667 )
                ( 4.27500000 0.62500000 4.00000000 )
                ( 4.27500000 1.25000000 -4.00000000 )
                ( 4.27500000 1.25000000 -2.66666667 )
                ( 4.27500000 1.25000000 -1.33333333 )
                ( 4.27500000 1.25000000 0.00000000 )
                ( 4.27500000 1.25000000 1.33333333 )
                ( 4.27500000 1.25000000 2.66666667 )
                ( 4.27500000 1.25000000 4.00000000 )
                ( 5.20625000 -1.25000000 -4.00000000 )
                ( 5.20625000 -1.25000000 -2.66666667 )
                ( 5.20625000 -1.25000000 -1.33333333 )
                ( 5.20625000 -1.25000000 0.00000000 )
                ( 5.20625000 -1.25000000 1.33333333 )
                ( 5.20625000 -1.25000000 2.66666667 )
                ( 5.20625000 -1.25000000 4.00000000 )
                ( 5.20625000 -0.62500000 -4.00000000 )
                ( 5.20625000 -0.62500000 -2.66666667 )
                ( 5.20625000 -0.62500000 -1.33333333 )
                ( 5.20625000 -0.62500000 0.00000000 )
                ( 5.20625000 -0.62500000 1.33333333 )
                ( 5.20625000 -0.62500000 2.66666667 )
                ( 5.20625000 -0.62500000 4.00000000 )
                ( 5.20625000 0.00000000 -4.00000000 )
                ( 5.20625000 0.00000000 -2.66666667 )
                ( 5.20625000 0.00000000 -1.33333333 )
                ( 5.20625000 0.00000000 0.00000000 )
                ( 5.20625000 0.00000000 1.33333333 )
                ( 5.20625000 0.00000000 2.66666667 )
                ( 5.20625000 0.00000000 4.00000000 )
                ( 5.20625000 0.62500000 -4.00000000 )
                ( 5.20625000 0.62500000 -2.66666667 )
                ( 5.20625000 0.62500000 -1.33333333 )
                ( 5.20625000 0.62500000 0.00000000 )
                ( 5.20625000 0.62500000 1.33333333 )
                ( 5.20625000 0.62500000 2.66666667 )
                ( 5.20625000 0.62500000 4.00000000 )
                ( 5.20625000 1.25000000 -4.00000000 )
                ( 5.20625000 1.25000000 -2.66666667 )
                ( 5.20625000 1.25000000 -1.33333333 )
                ( 5.20625000 1.25000000 0.00000000 )
                ( 5.20625000 1.25000000 1.33333333 )
                ( 5.20625000 1.25000000 2.66666667 )
                ( 5.20625000 1.25000000 4.00000000 )
                ( 6.13750000 -1.25000000 -4.00000000 )
                ( 6.13750000 -1.25000000 -2.66666667 )
                ( 6.13750000 -1.25000000 -1.33333333 )
                ( 6.13750000 -1.25000000 0.00000000 )
                ( 6.13750000 -1.25000000 1.33333333 )
                ( 6.13750000 -1.25000000 2.66666667 )
                ( 6.13750000 -1.25000000 4.00000000 )
                ( 6.13750000 -0.62500000 -4.00000000 )
                ( 6.13750000 -0.62500000 -2.66666667 )
                ( 6.13750000 -0.62500000 -1.33333333 )
                ( 6.13750000 -0.62500000 0.00000000 )
                ( 6.13750000 -0.62500000 1.33333333 )
                ( 6.13750000 -0.62500000 2.66666667 )
                ( 6.13750000 -0.62500000 4.00000000 )
                ( 6.13750000 0.00000000 -4.00000000 )
                ( 6.13750000 0.00000000 -2.66666667 )
                ( 6.13750000 0.00000000 -1.33333333 )
                ( 6.13750000 0.00000000 0.00000000 )
                ( 6.13750000 0.00000000 1.33333333 )
                ( 6.13750000 0.00000000 2.66666667 )
                ( 6.13750000 0.00000000 4.00000000 )
                ( 6.13750000 0.62500000 -4.00000000 )
                ( 6.13750000 0.62500000 -2.66666667 )
                ( 6.13750000 0.62500000 -1.33333333 )
                ( 6.13750000 0.62500000 0.00000000 )
                ( 6.13750000 0.62500000 1.33333333 )
                ( 6.13750000 0.62500000 2.66666667 )
                ( 6.13750000 0.62500000 4.00000000 )
                ( 6.13750000 1.25000000 -4.00000000 )
                ( 6.13750000 1.25000000 -2.66666667 )
                ( 6.13750000 1.25000000 -1.33333333 )
                ( 6.13750000 1.25000000 0.00000000 )
                ( 6.13750000 1.25000000 1.33333333 )
                ( 6.13750000 1.25000000 2.66666667 )
                ( 6.13750000 1.25000000 4.00000000 )
                ( 7.06875000 -1.25000000 -4.00000000 )
                ( 7.06875000 -1.25000000 -2.66666667 )
                ( 7.06875000 -1.25000000 -1.33333333 )
                ( 7.06875000 -1.25000000 0.00000000 )
                ( 7.06875000 -1.25000000 1.33333333 )
                ( 7.06875000 -1.25000000 2.66666667 )
                ( 7.06875000 -1.25000000 4.00000000 )
                ( 7.06875000 -0.62500000 -4.00000000 )
                ( 7.06875000 -0.62500000 -2.66666667 )
                ( 7.06875000 -0.62500000 -1.33333333 )
                ( 7.06875000 -0.62500000 0.00000000 )
                ( 7.06875000 -0.62500000 1.33333333 )
                ( 7.06875000 -0.62500000 2.66666667 )
                ( 7.06875000 -0.62500000 4.00000000 )
                ( 7.06875000 0.00000000 -4.00000000 )
                ( 7.06875000 0.00000000 -2.66666667 )
                ( 7.06875000 0.00000000 -1.33333333 )
                ( 7.06875000 0.00000000 0.00000000 )
                ( 7.06875000 0.00000000 1.33333333 )
                ( 7.06875000 0.00000000 2.66666667 )
                ( 7.06875000 0.00000000 4.00000000 )
                ( 7.06875000 0.62500000 -4.00000000 )
                ( 7.06875000 0.62500000 -2.66666667 )
                ( 7.06875000 0.62500000 -1.33333333 )
                ( 7.06875000 0.62500000 0.00000000 )
                ( 7.06875000 0.62500000 1.33333333 )
                ( 7.06875000 0.62500000 2.66666667 )
                ( 7.06875000 0.62500000 4.00000000 )
                ( 7.06875000 1.25000000 -4.00000000 )
                ( 7.06875000 1.25000000 -2.66666667 )
                ( 7.06875000 1.25000000 -1.33333333 )
                ( 7.06875000 1.25000000 0.00000000 )
                ( 7.06875000 1.25000000 1.33333333 )
                ( 7.06875000 1.25000000 2.66666667 )
                ( 7.06875000 1.25000000 4.00000000 )
                ( 8.00000000 -1.25000000 -4.00000000 )
                ( 8.00000000 -1.25000000 -2.66666667 )
                ( 8.00000000 -1.25000000 -1.33333333 )
                ( 8.00000000 -1.25000000 0.00000000 )
                ( 8.00000000 -1.25000000 1.33333333 )
                ( 8.00000000 -1.25000000 2.66666667 )
                ( 8.00000000 -1.25000000 4.00000000 )
                ( 8.00000000 -0.62500000 -4.00000000 )
                ( 8.00000000 -0.62500000 -2.66666667 )
                ( 8.00000000 -0.62500000 -1.33333333 )
                ( 8.00000000 -0.62500000 0.00000000 )
                ( 8.00000000 -0.62500000 1.33333333 )
                ( 8.00000000 -0.62500000 2.66666667 )
                ( 8.00000000 -0.62500000 4.00000000 )
                ( 8.00000000 0.00000000 -4.00000000 )
                ( 8.00000000 0.00000000 -2.66666667 )
                ( 8.00000000 0.00000000 -1.33333333 )
                ( 8.00000000 0.00000000 0.00000000 )
                ( 8.00000000 0.00000000 1.33333333 )
                ( 8.00000000 0.00000000 2.66666667 )
                ( 8.00000000 0.00000000 4.00000000 )
                ( 8.00000000 0.62500000 -4.00000000 )
                ( 8.00000000 0.62500000 -2.66666667 )
                ( 8.00000000 0.62500000 -1.33333333 )
                ( 8.00000000 0.62500000 0.00000000 )
                ( 8.00000000 0.62500000 1.33333333 )
                ( 8.00000000 0.62500000 2.66666667 )
                ( 8.00000000 0.62500000 4.00000000 )
                ( 8.00000000 1.25000000 -4.00000000 )
                ( 8.00000000 1.25000000 -2.66666667 )
                ( 8.00000000 1.25000000 -1.33333333 )
                ( 8.00000000 1.25000000 0.00000000 )
                ( 8.00000000 1.25000000 1.33333333 )
                ( 8.00000000 1.25000000 2.66666667 )
                ( 8.00000000 1.25000000 4.00000000 )
            );
            value           uniform (0 0 0);
        }
    }
}
// ************************************************************************* //
